Version 4
SHEET 1 880 680
WIRE 192 32 192 16
WIRE 384 32 192 32
WIRE 560 32 384 32
WIRE 192 64 192 32
WIRE 384 64 384 32
WIRE 560 64 560 32
WIRE 192 176 192 144
WIRE 240 176 192 176
WIRE 256 176 240 176
WIRE 336 176 320 176
WIRE 384 176 384 144
WIRE 384 176 336 176
WIRE 512 192 448 192
WIRE 560 192 560 144
WIRE 560 192 512 192
WIRE 192 208 192 176
WIRE 448 208 448 192
WIRE -32 256 -64 256
WIRE 0 256 -32 256
WIRE 128 256 80 256
WIRE 384 256 384 176
WIRE 192 336 192 304
WIRE 272 336 192 336
WIRE 448 336 448 304
WIRE 448 336 272 336
WIRE 272 352 272 336
FLAG 192 -64 0
FLAG 272 352 0
FLAG -144 256 0
FLAG 512 192 n004
FLAG -32 256 n001
FLAG 336 176 n005
FLAG 240 176 n003
SYMBOL voltage 192 32 R180
WINDOW 0 24 96 Left 2
WINDOW 3 24 16 Left 2
WINDOW 123 0 0 Left 0
WINDOW 39 0 0 Left 0
SYMATTR InstName V1
SYMATTR Value 5
SYMBOL res 96 240 R90
WINDOW 0 0 56 VBottom 2
WINDOW 3 32 56 VTop 2
SYMATTR InstName R1
SYMATTR Value 10k
SYMBOL voltage -48 256 R90
WINDOW 0 -32 56 VBottom 2
WINDOW 3 32 252 VTop 2
WINDOW 123 0 0 Left 0
WINDOW 39 0 0 Left 0
SYMATTR InstName V2
SYMATTR Value PULSE(0 5 0.0025 0.000001 0.000001 0.0025 0.005 5)
SYMBOL res 176 48 R0
SYMATTR InstName R2
SYMATTR Value 1k
SYMBOL res 368 48 R0
SYMATTR InstName R3
SYMATTR Value 10k
SYMBOL res 544 48 R0
SYMATTR InstName R4
SYMATTR Value 1k
SYMBOL npn 128 208 R0
SYMATTR InstName Q1
SYMATTR Value 2N2222
SYMBOL npn 384 208 R0
SYMATTR InstName Q2
SYMATTR Value 2N2222
SYMBOL cap 256 192 R270
WINDOW 0 32 32 VTop 2
WINDOW 3 0 32 VBottom 2
SYMATTR InstName C1
SYMATTR Value 10n
TEXT -56 376 Left 2 !.tran 0.01
